<routes>
    <route id="r1" edges="e1 e2" />
    <route id="r2" edges="e3 e4" />
</routes>
